VERSION 18
*TRNSED
*******************************************************************************
*** TRNSYS input file (deck) generated by TrnsysStudio
*** on Wednesday, January 26, 2022 at 18:39
*** from TrnsysStudio project: C:\Users\AA Rig\Desktop\TRNSYS\Modelle\Trinkwarmwasser\variation of VL\201022_MFH_Storage_70.tpf
*** 
*** If you edit this file, use the File/Import TRNSYS Input File function in 
*** TrnsysStudio to update the project. 
*** 
*** If you have problems, questions or suggestions please contact your local 
*** TRNSYS distributor or mailto:software@cstb.fr 
*** 
*******************************************************************************

*|<BACKGROUND> WHITE
*|<COLOR1> RED
*|<SIZE1> 14
*|<ALIGN1> CENTER
*|<STYLE1> ITALIC BOLD
 
*|[HEADER|
*|*TRNSYS 17
*|<STYLE1> BOLD
*|<COLOR1> NAVY
*|<SIZE1> 12
*|* TRNSYS input file: MFH_Storage_70.dck
*|* TrnsysStudio Project: C:\Users\AA Rig\Desktop\TRNSYS\Modelle\Trinkwarmwasser\variation of VL\201022_MFH_Storage_70.tpf
*|*generated by TrnsysStudio, Wednesday, January 26, 2022 at 18:39
*|*
*|]
 
*|<COLOR1> RED
*|<ALIGN1> LEFT

*******************************************************************************
*** Units 
*******************************************************************************

*******************************************************************************
*** Control cards
*******************************************************************************
* START, STOP and STEP
*|[SIMPAR|Simulation Parameters
EQUATIONS 5
I_MONTH=0
*|<Month of the simulation                    |C:\TRNSYS18\Exe\Month1.dat|1|2|2
I_DAY=1
*|Day of Month for Simulation Start           |||0|1|1|31|3
I_LENGTH=365
*|<Length of Simulation                       |C:\TRNSYS18\Exe\Length.dat|2|1|4
START=I_MONTH+24*(I_DAY-1)
STOP=START+I_LENGTH*24
EQUATIONS 1
STEP=dt
*|Timestep |hours|hours|0|1|0.0000277777778|10000.00000|1000
*|]
SIMULATION 	 START	 STOP	 STEP	! Start time	End time	Time step
TOLERANCES 0.003 0.003			! Integration	 Convergence
LIMITS 50 50 30				! Max iterations	Max warnings	Trace limit
DFQ 1					! TRNSYS numerical integration solver method
WIDTH 80				! TRNSYS output file width, number of characters
LIST 					! NOLIST statement
					! MAP statement
SOLVER 0 1 1				! Solver statement	Minimum relaxation factor	Maximum relaxation factor
NAN_CHECK 0				! Nan DEBUG statement
OVERWRITE_CHECK 0			! Overwrite DEBUG statement
TIME_REPORT 0			! disable time report
EQSOLVER 1				! EQUATION SOLVER statement
* User defined CONSTANTS 
*$USER_CONSTANTS
!VAR!
CONSTANTS 5
dt=0.05
plotter = 0
cp_DH = 4.181 ! kJ/kgK (bei 50 °C)
cp_DHW = 4.181 !kJ/kgK (bei 50 °C)
rho = 985

EQUATIONS 1
pi = 3.14159261
*$USER_CONSTANTS_END


* EQUATIONS "DHW pipes"
* 
EQUATIONS 24
len_supply = 24.2424
da_supply = 15 / 1000
di_supply = 13 / 1000
len_flat = 1.0
da_flat = 12 / 1000
di_flat = 10 / 1000
len_circ = 13.414128
da_circ = 12 / 1000
di_circ = 10 / 1000
alpha_i = 1000.0
alpha_a = 10.0
lambda_iso = 0.035 !heat transfer coefficient for pipes
lambda_w = 372.0
T_amb = 20
f_enev = 1
diso_c_supply = LE(di_supply, 0.022) * (da_supply + 0.04*f_enev) + AND(GT(di_supply, 0.022), LE(di_supply, 0.035)) * (da_supply + 0.06*f_enev) + AND(GT(di_supply, 0.035), LE(di_supply, 0.1)) * (da_supply+2*di_supply*f_enev) + GT(di_supply, 0.1) * (da_supply + 0.2*f_enev)                     ! MAX(2*di_supply+da_supply, da_supply+0.04) !thickness of pipe insulation
C1_c_supply = di_supply/(2*lambda_w)*ln(da_supply/di_supply)+di_supply/(2*lambda_iso)*ln(diso_c_supply/da_supply)+di_supply/(alpha_a*diso_c_supply)
u_supply = (alpha_i)/(1+alpha_i*C1_c_supply)*3.6
diso_c_flat = LE(di_flat, 0.022) * (da_flat + 0.04*f_enev) + AND(GT(di_flat, 0.022), LE(di_flat, 0.035)) * (da_flat + 0.06*f_enev) + AND(GT(di_flat, 0.035), LE(di_flat, 0.1)) * (da_flat+2*di_flat*f_enev) + GT(di_flat, 0.1) * (da_flat + 0.2*f_enev)                     ! MAX(2*di_supply+da_supply, da_supply+0.04) !thickness of pipe insulation
C1_c_flat = di_flat/(2*lambda_w)*ln(da_flat/di_flat)+di_flat/(2*lambda_iso)*ln(diso_c_flat/da_flat)+di_flat/(alpha_a*diso_c_flat)
u_flat = (alpha_i)/(1+alpha_i*C1_c_flat)*3.6
diso_c_circ = LE(di_circ, 0.022) * (da_circ + 0.04*f_enev) + AND(GT(di_circ, 0.022), LE(di_circ, 0.035)) * (da_circ + 0.06*f_enev) + AND(GT(di_circ, 0.035), LE(di_circ, 0.1)) * (da_circ+2*di_circ*f_enev) + GT(di_circ, 0.1) * (da_circ + 0.2*f_enev)                     ! MAX(2*di_circ+da_circ, da_circ+0.04) !thickness of pipe insulation
C1_c_circ = di_circ/(2*lambda_w)*ln(da_circ/di_circ)+di_circ/(2*lambda_iso)*ln(diso_c_circ/da_circ)+di_circ/(alpha_a*diso_c_circ)
u_circ = (alpha_i)/(1+alpha_i*C1_c_circ)*3.6
*$UNIT_NAME DHW pipes
*$LAYER Main
*$POSITION 821 483
*$UNIT_NUMBER 17

*------------------------------------------------------------------------------


* EQUATIONS "Storage Parameters"
* 
EQUATIONS 15
V_Store = 120 / 1000
UA_erp = 1.61349
H_Store = MIN(H_Store_small,H_Store_large)    !used storage height exlusive insulation in m
fST_corr = 1.2   !corr. factor for the energystore losses
Cv_E = MAX(1.2,(-0.1815*LN(V_Store)+1.6875)) * fST_corr  !correction values calculated on measured stores (by Jenni)  !multipled with fST_corr (1.4)
H_Store_large = (0.09302*V_Store + 4.698)  !storage height for Vstore > 20m3
H_Store_small = 0.32* V_Store + 1.65  !storage height for 2m3 < Vstore < 20m3
UA_Store = UA_erp * 1.2* 3.6  !(UA_cyl + UA_cap)*Cv_E*3.6  !UA-value whole store
Nmax = min(190,intV)
intV = INT(V_Store/0.020)   !determine optimal value for number of nodes    !ca 20 liter per node, only integers allowed
h_s1 = 1
h_s2 = 0.85
h_s3 = 0.5
h_s4 = 0.15
h_s5 = 0.0
*$UNIT_NAME Storage Parameters
*$LAYER Main
*$POSITION 500 151
*$UNIT_NUMBER 26

*------------------------------------------------------------------------------


* Model "Nightsetback" (Type 14)
* 

*|*
*|* *** Model Nightsetback (Type 14, Unit 36)
*|*
CONSTANTS 12
*|*PARAMETERS																							VALUES			UNITS
INITIALV=0
*|Initial value of time                   |hr|hr|0|1|0|1000000.00000|1000
INITIALV1=0
*|Initial value of function               |any|any|0|1|-1000000.00000|1000000.00000|1000
TIMEATPO=5
*|Time at point                           |hr|hr|0|1|0|1000000.00000|1000
VALUEATP=0
*|Value at point                          |any|any|0|1|-1000000.00000|1000000.00000|1000
TIMEATPO1=5
*|Time at point                           |hr|hr|0|1|0|1000000.00000|1000
VALUEATP1=1
*|Value at point                          |any|any|0|1|-1000000.00000|1000000.00000|1000
TIMEATPO2=23
*|Time at point                           |hr|hr|0|1|0|1000000.00000|1000
VALUEATP2=1
*|Value at point                          |any|any|0|1|-1000000.00000|1000000.00000|1000
TIMEATPO3=23
*|Time at point                           |hr|hr|0|1|0|1000000.00000|1000
VALUEATP3=0
*|Value at point                          |any|any|0|1|-1000000.00000|1000000.00000|1000
TIMEATPO4=24
*|Time at point                           |hr|hr|0|1|0|1000000.00000|1000
VALUEATP4=0
*|Value at point                          |any|any|0|1|-1000000.00000|1000000.00000|1000

UNIT 36 TYPE 14	 Nightsetback
*$UNIT_NAME Nightsetback
*$MODEL .\Utility\Forcing Functions\General\Type14h.tmf
*$POSITION 1126 314
*$LAYER Main # 
PARAMETERS 12
INITIALV		! 1 Initial value of time
INITIALV1		! 2 Initial value of function
TIMEATPO		! 3 Time at point
VALUEATP		! 4 Value at point
TIMEATPO1		! 5 Time at point
VALUEATP1		! 6 Value at point
TIMEATPO2		! 7 Time at point
VALUEATP2		! 8 Value at point
TIMEATPO3		! 9 Time at point
VALUEATP3		! 10 Value at point
TIMEATPO4		! 11 Time at point
VALUEATP4		! 12 Value at point
*------------------------------------------------------------------------------

* EQUATIONS "Store Load"
* 
EQUATIONS 7
dm_load = 59.9403
T_hx_cold_out_set = 62
deltaT_log = (T_ah_hot_in-T_hx_cold_out_set) - (3) / LN((T_ah_hot_in-T_hx_cold_out_set) / 3  )
dm_hx_max = 98.72814
UA_ah = 772.085 * 3.6
UA_ph = 0.0 * 3.6
len_pipe_conv = dm_hx_max * 3 / 60 / 1000 / ( (di_supply^2)/4 * pi ) ! dm_hx_max * 0.2
*$UNIT_NAME Store Load
*$LAYER Main
*$POSITION 254 154
*$UNIT_NUMBER 32

*------------------------------------------------------------------------------


* EQUATIONS "DHW Tapping"
* 
EQUATIONS 4
T_DCW = 9.7+6.3*sin(360*(TIME+(273.75-60)*24)/8760) !fresh water temperature as a sine function over a year by Jordan and Vajen !input for heat exchanger
dm_DHW_60 = dm_loadprofile * (45-T_DCW) / (60-T_DCW)
dm_DHW = dm_DHW_60 + dm_pen
dm_loadprofile = [34,1]
*$UNIT_NAME DHW Tapping
*$LAYER Main
*$POSITION 705 568
*$UNIT_NUMBER 9

*------------------------------------------------------------------------------


* EQUATIONS "Circulation"
* 
EQUATIONS 6
dm_circ = 38.78784 / f_enev
frac_SEP_DHW_DHW = gt([12,2],0) * dm_DHW/([12,2]+dm_rep) !gt(dV_ges,0) * (dV_ges-dV_tww)/(dV_ges+dV_rep) + eql(0,dV_ges) * 1
dm_rep = eql(0,[12,2])
frac_SEP_DHW_CIRC = 1-frac_SEP_DHW_DHW
ctrl_circ_nsb = eql(circ_type,16) * [36,2]*[18,1] + eql(circ_type, 24) * [18,1] + eql(circ_type,-1) * [43,1] * [36,2]
circ_type = 16
*$UNIT_NAME Circulation
*$LAYER Main
*$POSITION 1012 367
*$UNIT_NUMBER 21

*------------------------------------------------------------------------------


* Model "Output Printer" (Type 25)
* 

*|*
*|* *** Model Output Printer (Type 25, Unit 13)
*|*
CONSTANTS 5
*|*PARAMETERS																							VALUES			UNITS
RELATIVE=0
*|Relative or absolute start time         |-|-|0|1|0|1.000|1000
OVERWRIT=-1
*|Overwrite or Append                     |-|-|0|1|-1|1.000|1000
PRINTHEA=-1
*|Print header                            |-|-|0|1|-1|1.000|1000
DELIMITE=0
*|Delimiter                               |-|-|0|1|0|2.000|1000
PRINTLAB=1
*|Print labels                            |-|-|0|1|-1|1.000|1000

UNIT 13 TYPE 25	 Output Printer
*$UNIT_NAME Output Printer
*$MODEL .\Output\Printer\No Units\Type25c.tmf
*$POSITION 573 856
*$LAYER Outputs # 
PARAMETERS 10
STEP		! 1 Printing interval
START		! 2 Start time
STOP		! 3 Stop time
32		! 4 Logical unit
0		! 5 Units printing mode
RELATIVE		! 6 Relative or absolute start time
OVERWRIT		! 7 Overwrite or Append
PRINTHEA		! 8 Print header
DELIMITE		! 9 Delimiter
PRINTLAB		! 10 Print labels
INPUTS 30
2,1 		! HX DH AH:ToutHot ->Input to be printed-1
37,1 		! HX DH PH:Source side outlet temperature ->Input to be printed-2
T_ah_hot_in		! DH:T_ah_hot_in ->Input to be printed-3
2,1 		! HX DH AH:ToutHot ->Input to be printed-4
2,2 		! HX DH AH:mHot ->Input to be printed-5
27,1 		! PMP STLOAD:Outlet fluid temperature ->Input to be printed-6
37,3 		! HX DH PH:Load side outlet temperature ->Input to be printed-7
35,1 		! MIX STLOAD+CIRC:Outlet temperature ->Input to be printed-8
2,3 		! HX DH AH:ToutCold ->Input to be printed-9
27,2 		! PMP STLOAD:Outlet flow rate ->Input to be printed-10
dm_DHW		! DHW Tapping:dm_DHW ->Input to be printed-11
14,2 		! PIPE CIRC:Outlet flow rate ->Input to be printed-12
31,1 		! MIX DHW+CIRC:Outlet temperature ->Input to be printed-13
12,1 		! PIPE SUPPLY:Outlet temperature ->Input to be printed-14
20,3 		! SEP DHW:Outlet temperature-2 ->Input to be printed-15
14,1 		! PIPE CIRC:Outlet temperature ->Input to be printed-16
T_DCW		! DHW Tapping:T_DCW ->Input to be printed-17
25,37 		! STO DHW:power through doubleport-2 ->Input to be printed-18
25,29 		! STO DHW:heat loss rate of the whole storage to ambient ->Input to be printed-19
12,3 		! PIPE SUPPLY:Environment losses ->Input to be printed-20
14,3 		! PIPE CIRC:Environment losses ->Input to be printed-21
25,46 		! STO DHW:temperature at sensor-1 ->Input to be printed-22
25,47 		! STO DHW:temperature at sensor-2 ->Input to be printed-23
25,48 		! STO DHW:temperature at sensor-3 ->Input to be printed-24
25,49 		! STO DHW:temperature at sensor-4 ->Input to be printed-25
25,50 		! STO DHW:temperature at sensor-5 ->Input to be printed-26
25,36 		! STO DHW:power through doubleport-1 ->Input to be printed-27
33,1 		! PIPE FLAT:Outlet temperature ->Input to be printed-28
33,3 		! PIPE FLAT:Environment losses ->Input to be printed-29
dm_loadprofile		! [equation] Input to be printed-30
*** INITIAL INPUT VALUES
T_ph_hot_in T_ph_hot_out T_ah_hot_in T_ah_hot_out dm_DH T_ph_cold_in
T_ph_cold_out T_ah_cold_in T_ah_cold_out dm_stload dm_DHW dm_circ
T_pipe_supply_in T_pipe_supply_out T_pipe_circ_in T_pipe_circ_out
T_DCW dQ_sto_DHW dQ_sto_loss dQ_pipe_supply_loss dQ_pipe_circ_loss
T_sto_1 T_sto_2 T_sto_3 T_sto_4 T_sto_5 dQ_sto_stload T_pipe_flat_out
dQ_pipe_flat_loss dm_loadprofile 
*** External files
ASSIGN "***.out" 32
*|? Output file for printed results |1000
*------------------------------------------------------------------------------

* Model "STO DHW" (Type 340)
* 

*|*
*|* *** Model STO DHW (Type 340, Unit 25)
*|*
CONSTANTS 115
*|*PARAMETERS																							VALUES			UNITS
DENSITYO=992.42
*|density of the fliud in the storage     |kg/m^3|kg/m^3|0|1|0|1000000.00000|1000
EFFECTIV=4.49
*|effective thermal conductivity in the storage |kJ/hr.m.K|kJ/hr.m.K|0|1|0|1000000.00000|1000
INITIALT=60
*|initial temerpature of the whole system |C|C|0|1|-1000000.00000|1000000.00000|1000
BOTTOMHE=0
*|bottom heat loss capacity rate          |kJ/hr.K|kJ/hr.K|0|1|0|1000000.00000|1000
TOPHEATL=0
*|top heat loss capacity rate             |kJ/hr.K|kJ/hr.K|0|1|0|1000000.00000|1000
RELLENGT=1
*|rel. length of 1. zone                  |-|-|0|1|-1000000.00000|1000000.00000|1000
RELLENGT1=0
*|rel. length of 2. zone                  |-|-|0|1|0|1000000.00000|1000
FORZONEH=0
*|For 2. Zone heat capacity rate from storage to ambient |kJ/hr.K|kJ/hr.K|0|1|0|1000000.00000|1000
RELLENGT2=0
*|rel. length of 3. zone                  |-|-|0|1|0|1000000.00000|1000
FORZONEH1=0
*|For 3. zone heat capacity rate from storage to ambient |kJ/hr.K|kJ/hr.K|0|1|0|1000000.00000|1000
FORZONEH2=0
*|For 4. zone heat capacity rate from storage to ambient |kJ/hr.K|kJ/hr.K|0|1|0|1000000.00000|1000
RELHEIGH=1
*|rel. height of inlet postition from doubleport -1 |-|-|0|1|-1000000.00000|1000000.00000|1000
RELHEIGT=0
*|rel. heigth of outlet position from doubleport-1 |-|-|0|1|-1000000.00000|1000000.00000|1000
ADDITION=0
*|additional parameter for doubleport (not used)-1 |-|-|0|1|-1000000.00000|1000000.00000|1000
STRATIFI=0
*|stratified charging with doubleport(=1)-1 |-|-|0|1|0|1.000|1000
RELHEIGH1=0
*|rel. height of inlet postition from doubleport -2 |-|-|0|1|-1000000.00000|1000000.00000|1000
RELHEIGT1=1
*|rel. heigth of outlet position from doubleport-2 |-|-|0|1|-1000000.00000|1000000.00000|1000
ADDITION1=0
*|additional parameter for doubleport (not used)-2 |-|-|0|1|-1000000.00000|1000000.00000|1000
STRATIFI1=0
*|stratified charging with doubleport(=1)-2 |-|-|0|1|0|1.000|1000
RELHEIGH2=0.65
*|rel. height of inlet postition from doubleport -3 |-|-|0|1|-1000000.00000|1000000.00000|1000
RELHEIGT2=1
*|rel. heigth of outlet position from doubleport-3 |-|-|0|1|-1000000.00000|1000000.00000|1000
ADDITION2=0
*|additional parameter for doubleport (not used)-3 |-|-|0|1|-1000000.00000|1000000.00000|1000
STRATIFI2=0
*|stratified charging with doubleport(=1)-3 |-|-|0|1|0|1.000|1000
RELHEIGH3=-1
*|rel. height of inlet postition from doubleport -4 |-|-|0|1|-1000000.00000|1000000.00000|1000
RELHEIGT3=-1
*|rel. heigth of outlet position from doubleport-4 |-|-|0|1|-1000000.00000|1000000.00000|1000
ADDITION3=0
*|additional parameter for doubleport (not used)-4 |-|-|0|1|-1000000.00000|1000000.00000|1000
STRATIFI3=0
*|stratified charging with doubleport(=1)-4 |-|-|0|1|0|1.000|1000
RELHEIGH4=-1
*|rel. height of inlet postition from doubleport -5 |-|-|0|1|-1000000.00000|1000000.00000|1000
RELHEIGT4=-1
*|rel. heigth of outlet position from doubleport-5 |-|-|0|1|-1000000.00000|1000000.00000|1000
ADDITION4=0
*|additional parameter for doubleport (not used)-5 |-|-|0|1|-1000000.00000|1000000.00000|1000
STRATIFI4=0
*|stratified charging with doubleport(=1)-5 |-|-|0|1|0|1.000|1000
RELHEIGH5=-1
*|rel. height of inlet postition from doubleport -6 |-|-|0|1|-1000000.00000|1000000.00000|1000
RELHEIGT5=-1
*|rel. heigth of outlet position from doubleport-6 |-|-|0|1|-1000000.00000|1000000.00000|1000
ADDITION5=0
*|additional parameter for doubleport (not used)-6 |-|-|0|1|-1000000.00000|1000000.00000|1000
STRATIFI5=0
*|stratified charging with doubleport(=1)-6 |-|-|0|1|0|1.000|1000
RELHEIGH6=-1
*|rel. height of inlet postition from doubleport -7 |-|-|0|1|-1000000.00000|1000000.00000|1000
RELHEIGT6=-1
*|rel. heigth of outlet position from doubleport-7 |-|-|0|1|-1000000.00000|1000000.00000|1000
ADDITION6=0
*|additional parameter for doubleport (not used)-7 |-|-|0|1|-1000000.00000|1000000.00000|1000
STRATIFI6=0
*|stratified charging with doubleport(=1)-7 |-|-|0|1|0|1.000|1000
RELHEIGH7=-1
*|rel. height of inlet postition from doubleport -8 |-|-|0|1|-1000000.00000|1000000.00000|1000
RELHEIGT7=-1
*|rel. heigth of outlet position from doubleport-8 |-|-|0|1|-1000000.00000|1000000.00000|1000
ADDITION7=0
*|additional parameter for doubleport (not used)-8 |-|-|0|1|-1000000.00000|1000000.00000|1000
STRATIFI7=0
*|stratified charging with doubleport(=1)-8 |-|-|0|1|0|1.000|1000
RELHEIGH8=-1
*|rel. height of inlet postition from doubleport -9 |-|-|0|1|-1000000.00000|1000000.00000|1000
RELHEIGT8=-1
*|rel. heigth of outlet position from doubleport-9 |-|-|0|1|-1000000.00000|1000000.00000|1000
ADDITION8=0
*|additional parameter for doubleport (not used)-9 |-|-|0|1|-1000000.00000|1000000.00000|1000
STRATIFI8=0
*|stratified charging with doubleport(=1)-9 |-|-|0|1|0|1.000|1000
RELHEIGH9=-1
*|rel. height of inlet postition from doubleport -10 |-|-|0|1|-1000000.00000|1000000.00000|1000
RELHEIGT9=-1
*|rel. heigth of outlet position from doubleport-10 |-|-|0|1|-1000000.00000|1000000.00000|1000
ADDITION9=0
*|additional parameter for doubleport (not used)-10 |-|-|0|1|-1000000.00000|1000000.00000|1000
STRATIFI9=0
*|stratified charging with doubleport(=1)-10 |-|-|0|1|0|1.000|1000
AUXILIAR=0
*|auxiliary heater mode                   |-|-|0|1|0|2.000|1000
HEATERIN=0
*|heater install mode                     |-|-|0|1|0|1.000|1000
ABSLENGT=0
*|abs. length of auxiliary heater         |m|m|0|1|0|1000000.00000|1000
RELPOSIT=0.5
*|rel. position where aux. heater is installed |-|-|0|1|-1000000.00000|1000000.00000|1000
RELPOSIT1=0.6
*|rel. position fo temperature controller for aux. heater |-|-|0|1|-1000000.00000|1000000.00000|1000
SETTEMPE=0
*|set temperature of the controller for aux. heater |C|C|0|1|-1000000.00000|1000000.00000|1000
DEADBAND=2
*|dead band temperature difference of the controller |deltaC|deltaC|0|1|-1000000.00000|1000000.00000|1000
RELINLET=-1
*|rel. inlet position of the heat exchanger-1 |-|-|0|1|-1000000.00000|1.000|1000
RELOUTLE=-1
*|rel. outlet position of the heat exchanger-1 |-|-|0|1|-1000000.00000|1.000|1000
VOLUMEOF=0
*|volume of heat exchanger-1              |m^3|m^3|0|1|0|1000000.00000|1000
SPECHEAT=4.18
*|spec.heat capacity of the fluid in the heat exchanger-1 |kJ/kg.K|kJ/kg.K|0|1|0|1000000.00000|1000
DENSITIY=992.42
*|densitiy of the fluid in the heatexchanger-1 |kg/m^3|kg/m^3|0|1|0|1000000.00000|1000
HEATTRAN=0
*|heat transfere capacity rate from the heat exchange to the store-1 |kJ/hr.K|kJ/hr.K|0|1|0|1000000.00000|1000
PARAMETE=0
*|1. parameter for the calculation of (UA)*-1 |-|-|0|1|-1000000.00000|1000000.00000|1000
PARAMETE1=0
*|2. parameter for the calculation of (UA)*-1 |-|-|0|1|-1000000.00000|1000000.00000|1000
PARAMETE2=0.6
*|3. parameter for the calculation of (UA)*-1 |-|-|0|1|-1000000.00000|1000000.00000|1000
HEATLOSS=0
*|heat loss capacity rate from the heat exchanger to ambient-1 |kJ/hr.K|kJ/hr.K|0|1|0|1000000.00000|1000
STRATIFI10=0
*|stratified charging with first heat exchanger if sch1=1 or sch1=2-1 |-|-|0|1|0|1.000|1000
FACTORFO=0
*|factor for secondary mass flow rate (only if sch1=2)-1 |-|-|0|1|-1000000.00000|1000000.00000|1000
FACTORFO1=0
*|factor for time dependency of (UA)h1,s-1 |-|-|0|1|-1000000.00000|1000000.00000|1000
RELINLET1=-1
*|rel. inlet position of the heat exchanger-2 |-|-|0|1|-1000000.00000|1.000|1000
RELOUTLE1=-1
*|rel. outlet position of the heat exchanger-2 |-|-|0|1|-1000000.00000|1.000|1000
VOLUMEOF1=0
*|volume of heat exchanger-2              |m^3|m^3|0|1|0|1000000.00000|1000
SPECHEAT1=4.18
*|spec.heat capacity of the fluid in the heat exchanger-2 |kJ/kg.K|kJ/kg.K|0|1|0|1000000.00000|1000
DENSITIY1=992.42
*|densitiy of the fluid in the heatexchanger-2 |kg/m^3|kg/m^3|0|1|0|1000000.00000|1000
HEATTRAN1=0
*|heat transfere capacity rate from the heat exchange to the store-2 |kJ/hr.K|kJ/hr.K|0|1|0|1000000.00000|1000
PARAMETE3=0
*|1. parameter for the calculation of (UA)*-2 |-|-|0|1|-1000000.00000|1000000.00000|1000
PARAMETE4=0
*|2. parameter for the calculation of (UA)*-2 |-|-|0|1|-1000000.00000|1000000.00000|1000
PARAMETE5=0.6
*|3. parameter for the calculation of (UA)*-2 |-|-|0|1|-1000000.00000|1000000.00000|1000
HEATLOSS1=0
*|heat loss capacity rate from the heat exchanger to ambient-2 |kJ/hr.K|kJ/hr.K|0|1|0|1000000.00000|1000
STRATIFI11=0
*|stratified charging with first heat exchanger if sch1=1 or sch1=2-2 |-|-|0|1|0|1.000|1000
FACTORFO2=0
*|factor for secondary mass flow rate (only if sch1=2)-2 |-|-|0|1|-1000000.00000|1000000.00000|1000
FACTORFO3=0
*|factor for time dependency of (UA)h1,s-2 |-|-|0|1|-1000000.00000|1000000.00000|1000
RELINLET2=-1
*|rel. inlet position of the heat exchanger-3 |-|-|0|1|-1000000.00000|1.000|1000
RELOUTLE2=-1
*|rel. outlet position of the heat exchanger-3 |-|-|0|1|-1000000.00000|1.000|1000
VOLUMEOF2=0
*|volume of heat exchanger-3              |m^3|m^3|0|1|0|1000000.00000|1000
SPECHEAT2=4.18
*|spec.heat capacity of the fluid in the heat exchanger-3 |kJ/kg.K|kJ/kg.K|0|1|0|1000000.00000|1000
DENSITIY2=992.42
*|densitiy of the fluid in the heatexchanger-3 |kg/m^3|kg/m^3|0|1|0|1000000.00000|1000
HEATTRAN2=0
*|heat transfere capacity rate from the heat exchange to the store-3 |kJ/hr.K|kJ/hr.K|0|1|0|1000000.00000|1000
PARAMETE6=0
*|1. parameter for the calculation of (UA)*-3 |-|-|0|1|-1000000.00000|1000000.00000|1000
PARAMETE7=0
*|2. parameter for the calculation of (UA)*-3 |-|-|0|1|-1000000.00000|1000000.00000|1000
PARAMETE8=0.6
*|3. parameter for the calculation of (UA)*-3 |-|-|0|1|-1000000.00000|1000000.00000|1000
HEATLOSS2=0
*|heat loss capacity rate from the heat exchanger to ambient-3 |kJ/hr.K|kJ/hr.K|0|1|0|1000000.00000|1000
STRATIFI12=0
*|stratified charging with first heat exchanger if sch1=1 or sch1=2-3 |-|-|0|1|0|1.000|1000
FACTORFO4=0
*|factor for secondary mass flow rate (only if sch1=2)-3 |-|-|0|1|-1000000.00000|1000000.00000|1000
FACTORFO5=0
*|factor for time dependency of (UA)h1,s-3 |-|-|0|1|-1000000.00000|1000000.00000|1000
RELINLET3=-1
*|rel. inlet position of the heat exchanger-4 |-|-|0|1|-1000000.00000|1.000|1000
RELOUTLE3=-1
*|rel. outlet position of the heat exchanger-4 |-|-|0|1|-1000000.00000|1.000|1000
VOLUMEOF3=0
*|volume of heat exchanger-4              |m^3|m^3|0|1|0|1000000.00000|1000
SPECHEAT3=4.18
*|spec.heat capacity of the fluid in the heat exchanger-4 |kJ/kg.K|kJ/kg.K|0|1|0|1000000.00000|1000
DENSITIY3=992.42
*|densitiy of the fluid in the heatexchanger-4 |kg/m^3|kg/m^3|0|1|0|1000000.00000|1000
HEATTRAN3=0
*|heat transfere capacity rate from the heat exchange to the store-4 |kJ/hr.K|kJ/hr.K|0|1|0|1000000.00000|1000
PARAMETE9=0
*|1. parameter for the calculation of (UA)*-4 |-|-|0|1|-1000000.00000|1000000.00000|1000
PARAMETE10=0
*|2. parameter for the calculation of (UA)*-4 |-|-|0|1|-1000000.00000|1000000.00000|1000
PARAMETE11=0.6
*|3. parameter for the calculation of (UA)*-4 |-|-|0|1|-1000000.00000|1000000.00000|1000
HEATLOSS3=0
*|heat loss capacity rate from the heat exchanger to ambient-4 |kJ/hr.K|kJ/hr.K|0|1|0|1000000.00000|1000
STRATIFI13=0
*|stratified charging with first heat exchanger if sch1=1 or sch1=2-4 |-|-|0|1|0|1.000|1000
FACTORFO6=0
*|factor for secondary mass flow rate (only if sch1=2)-4 |-|-|0|1|-1000000.00000|1000000.00000|1000
FACTORFO7=0
*|factor for time dependency of (UA)h1,s-4 |-|-|0|1|-1000000.00000|1000000.00000|1000
ACCURACY=0.001
*|accuracy for calculating the temperatures |deltaC|deltaC|0|1|-1000000.00000|1000000.00000|1000
ACCURACY1=1
*|accuracy for temperature dependency of (UA)* (%) |-|-|0|1|0|100.000|1000
PRECISIO=1000
*|precision fo the mixing process in the store |-|-|0|1|-1000000.00000|1000000.00000|1000
FLAGIFTH=0
*|flag, if the temperature-dependence timestep control is used (1=yes) |-|-|0|1|0|1.000|1000
EMULATIO=0
*|emulation of former versions            |-|-|0|1|-1000000.00000|1000000.00000|1000
CONSTANTS 25
*|*INPUTS																							VALUES			UNITS
INLETTEM=20
*|inlet temperature of doubleport-3       |C|C|0|1|-1000000.00000|1000000.00000|1000
FLUIDFLO=0
*|fluid flow rate of doubleport-3         |kg/hr|kg/hr|0|1|0|1000000.00000|1000
INLETTEM1=20
*|inlet temperature of doubleport-4       |C|C|0|1|-1000000.00000|1000000.00000|1000
FLUIDFLO1=0
*|fluid flow rate of doubleport-4         |kg/hr|kg/hr|0|1|0|1000000.00000|1000
INLETTEM2=20
*|inlet temperature of doubleport-5       |C|C|0|1|-1000000.00000|1000000.00000|1000
FLUIDFLO2=0
*|fluid flow rate of doubleport-5         |kg/hr|kg/hr|0|1|0|1000000.00000|1000
INLETTEM3=20
*|inlet temperature of doubleport-6       |C|C|0|1|-1000000.00000|1000000.00000|1000
FLUIDFLO3=0
*|fluid flow rate of doubleport-6         |kg/hr|kg/hr|0|1|0|1000000.00000|1000
INLETTEM4=20
*|inlet temperature of doubleport-7       |C|C|0|1|-1000000.00000|1000000.00000|1000
FLUIDFLO4=0
*|fluid flow rate of doubleport-7         |kg/hr|kg/hr|0|1|0|1000000.00000|1000
INLETTEM5=20
*|inlet temperature of doubleport-8       |C|C|0|1|-1000000.00000|1000000.00000|1000
FLUIDFLO5=0
*|fluid flow rate of doubleport-8         |kg/hr|kg/hr|0|1|0|1000000.00000|1000
INLETTEM6=20
*|inlet temperature of doubleport-9       |C|C|0|1|-1000000.00000|1000000.00000|1000
FLUIDFLO6=0
*|fluid flow rate of doubleport-9         |kg/hr|kg/hr|0|1|0|1000000.00000|1000
INLETTEM7=20
*|inlet temperature of doubleport-10      |C|C|0|1|-1000000.00000|1000000.00000|1000
FLUIDFLO7=0
*|fluid flow rate of doubleport-10        |kg/hr|kg/hr|0|1|0|1000000.00000|1000
INLETTEM8=20
*|inlet temperature of heatexchanger-1    |C|C|0|1|-1000000.00000|1000000.00000|1000
FLUIDFLO8=0
*|fluid flow rate of heat exchanger-1     |kg/hr|kg/hr|0|1|0|1000000.00000|1000
INLETTEM9=20
*|inlet temperature of heatexchanger-2    |C|C|0|1|-1000000.00000|1000000.00000|1000
FLUIDFLO9=0
*|fluid flow rate of heat exchanger-2     |kg/hr|kg/hr|0|1|0|1000000.00000|1000
INLETTEM10=20
*|inlet temperature of heatexchanger-3    |C|C|0|1|-1000000.00000|1000000.00000|1000
FLUIDFLO10=0
*|fluid flow rate of heat exchanger-3     |kg/hr|kg/hr|0|1|0|1000000.00000|1000
INLETTEM11=20
*|inlet temperature of heatexchanger-4    |C|C|0|1|-1000000.00000|1000000.00000|1000
FLUIDFLO11=0
*|fluid flow rate of heat exchanger-4     |kg/hr|kg/hr|0|1|0|1000000.00000|1000
AUXILIAR1=0
*|auxiliary heater input                  |kJ/hr|kJ/hr|0|1|-1000000.00000|1000000.00000|1000

UNIT 25 TYPE 340	 STO DHW
*$UNIT_NAME STO DHW
*$MODEL .\Z_non-standard\Type340_Storage.tmf
*$POSITION 541 386
*$LAYER Main # 
PARAMETERS 126
H_Store		! 1 storage height
V_Store		! 2 storage volume
cp_DHW		! 3 spec. heat capacity of the fluid in the storage
DENSITYO		! 4 density of the fliud in the storage
EFFECTIV		! 5 effective thermal conductivity in the storage
4		! 6 number of heat exchangers (fixed)
INITIALT		! 7 initial temerpature of the whole system
BOTTOMHE		! 8 bottom heat loss capacity rate
TOPHEATL		! 9 top heat loss capacity rate
RELLENGT		! 10 rel. length of 1. zone
UA_store		! 11 For 1. Zone heat loss capacity rate from storage to ambient
RELLENGT1		! 12 rel. length of 2. zone
FORZONEH		! 13 For 2. Zone heat capacity rate from storage to ambient
RELLENGT2		! 14 rel. length of 3. zone
FORZONEH1		! 15 For 3. zone heat capacity rate from storage to ambient
FORZONEH2		! 16 For 4. zone heat capacity rate from storage to ambient
RELHEIGH		! 17 rel. height of inlet postition from doubleport -1
RELHEIGT		! 18 rel. heigth of outlet position from doubleport-1
ADDITION		! 19 additional parameter for doubleport (not used)-1
STRATIFI		! 20 stratified charging with doubleport(=1)-1
RELHEIGH1		! 21 rel. height of inlet postition from doubleport -2
RELHEIGT1		! 22 rel. heigth of outlet position from doubleport-2
ADDITION1		! 23 additional parameter for doubleport (not used)-2
STRATIFI1		! 24 stratified charging with doubleport(=1)-2
RELHEIGH2		! 25 rel. height of inlet postition from doubleport -3
RELHEIGT2		! 26 rel. heigth of outlet position from doubleport-3
ADDITION2		! 27 additional parameter for doubleport (not used)-3
STRATIFI2		! 28 stratified charging with doubleport(=1)-3
RELHEIGH3		! 29 rel. height of inlet postition from doubleport -4
RELHEIGT3		! 30 rel. heigth of outlet position from doubleport-4
ADDITION3		! 31 additional parameter for doubleport (not used)-4
STRATIFI3		! 32 stratified charging with doubleport(=1)-4
RELHEIGH4		! 33 rel. height of inlet postition from doubleport -5
RELHEIGT4		! 34 rel. heigth of outlet position from doubleport-5
ADDITION4		! 35 additional parameter for doubleport (not used)-5
STRATIFI4		! 36 stratified charging with doubleport(=1)-5
RELHEIGH5		! 37 rel. height of inlet postition from doubleport -6
RELHEIGT5		! 38 rel. heigth of outlet position from doubleport-6
ADDITION5		! 39 additional parameter for doubleport (not used)-6
STRATIFI5		! 40 stratified charging with doubleport(=1)-6
RELHEIGH6		! 41 rel. height of inlet postition from doubleport -7
RELHEIGT6		! 42 rel. heigth of outlet position from doubleport-7
ADDITION6		! 43 additional parameter for doubleport (not used)-7
STRATIFI6		! 44 stratified charging with doubleport(=1)-7
RELHEIGH7		! 45 rel. height of inlet postition from doubleport -8
RELHEIGT7		! 46 rel. heigth of outlet position from doubleport-8
ADDITION7		! 47 additional parameter for doubleport (not used)-8
STRATIFI7		! 48 stratified charging with doubleport(=1)-8
RELHEIGH8		! 49 rel. height of inlet postition from doubleport -9
RELHEIGT8		! 50 rel. heigth of outlet position from doubleport-9